<?xml version="1.0" encoding="iso-8859-1"?>
<pnml>
<net id="Net-One" type="P/T net">
<place id="P0">
<graphics>
<position x="270.0" y="105.0"/>
</graphics>
<name>
<value>P0</value>
<graphics>
<offset x="-5.0" y="35.0"/>
</graphics>
</name>
<initialMarking>
<value>1</value>
<graphics>
<offset x="0.0" y="0.0"/>
</graphics>
</initialMarking>
<capacity>
<value>0</value>
</capacity>
<invariant>
<value>&lt;inf</value>
</invariant>
</place>
<place id="P1">
<graphics>
<position x="540.0" y="75.0"/>
</graphics>
<name>
<value>P1</value>
<graphics>
<offset x="-5.0" y="35.0"/>
</graphics>
</name>
<initialMarking>
<value>0</value>
<graphics>
<offset x="0.0" y="0.0"/>
</graphics>
</initialMarking>
<capacity>
<value>0</value>
</capacity>
<invariant>
<value>&lt;inf</value>
</invariant>
</place>
<place id="P10">
<graphics>
<position x="285.0" y="525.0"/>
</graphics>
<name>
<value>P10</value>
<graphics>
<offset x="-5.0" y="35.0"/>
</graphics>
</name>
<initialMarking>
<value>1</value>
<graphics>
<offset x="0.0" y="0.0"/>
</graphics>
</initialMarking>
<capacity>
<value>0</value>
</capacity>
<invariant>
<value>&lt;inf</value>
</invariant>
</place>
<place id="P2">
<graphics>
<position x="540.0" y="150.0"/>
</graphics>
<name>
<value>P2</value>
<graphics>
<offset x="-5.0" y="35.0"/>
</graphics>
</name>
<initialMarking>
<value>0</value>
<graphics>
<offset x="0.0" y="0.0"/>
</graphics>
</initialMarking>
<capacity>
<value>0</value>
</capacity>
<invariant>
<value>&lt;inf</value>
</invariant>
</place>
<place id="P3">
<graphics>
<position x="270.0" y="255.0"/>
</graphics>
<name>
<value>P3</value>
<graphics>
<offset x="-5.0" y="35.0"/>
</graphics>
</name>
<initialMarking>
<value>1</value>
<graphics>
<offset x="0.0" y="0.0"/>
</graphics>
</initialMarking>
<capacity>
<value>0</value>
</capacity>
<invariant>
<value>&lt;inf</value>
</invariant>
</place>
<place id="P4">
<graphics>
<position x="540.0" y="225.0"/>
</graphics>
<name>
<value>P4</value>
<graphics>
<offset x="-5.0" y="35.0"/>
</graphics>
</name>
<initialMarking>
<value>0</value>
<graphics>
<offset x="0.0" y="0.0"/>
</graphics>
</initialMarking>
<capacity>
<value>0</value>
</capacity>
<invariant>
<value>&lt;inf</value>
</invariant>
</place>
<place id="P5">
<graphics>
<position x="540.0" y="285.0"/>
</graphics>
<name>
<value>P5</value>
<graphics>
<offset x="-5.0" y="35.0"/>
</graphics>
</name>
<initialMarking>
<value>0</value>
<graphics>
<offset x="0.0" y="0.0"/>
</graphics>
</initialMarking>
<capacity>
<value>0</value>
</capacity>
<invariant>
<value>&lt;inf</value>
</invariant>
</place>
<place id="P6">
<graphics>
<position x="540.0" y="345.0"/>
</graphics>
<name>
<value>P6</value>
<graphics>
<offset x="-5.0" y="35.0"/>
</graphics>
</name>
<initialMarking>
<value>0</value>
<graphics>
<offset x="0.0" y="0.0"/>
</graphics>
</initialMarking>
<capacity>
<value>0</value>
</capacity>
<invariant>
<value>&lt;inf</value>
</invariant>
</place>
<place id="P7">
<graphics>
<position x="495.0" y="495.0"/>
</graphics>
<name>
<value>P7</value>
<graphics>
<offset x="-5.0" y="35.0"/>
</graphics>
</name>
<initialMarking>
<value>0</value>
<graphics>
<offset x="0.0" y="0.0"/>
</graphics>
</initialMarking>
<capacity>
<value>0</value>
</capacity>
<invariant>
<value>&lt;inf</value>
</invariant>
</place>
<place id="P8">
<graphics>
<position x="285.0" y="435.0"/>
</graphics>
<name>
<value>P8</value>
<graphics>
<offset x="-5.0" y="35.0"/>
</graphics>
</name>
<initialMarking>
<value>1</value>
<graphics>
<offset x="0.0" y="0.0"/>
</graphics>
</initialMarking>
<capacity>
<value>0</value>
</capacity>
<invariant>
<value>&lt;inf</value>
</invariant>
</place>
<place id="P9">
<graphics>
<position x="285.0" y="480.0"/>
</graphics>
<name>
<value>P9</value>
<graphics>
<offset x="-5.0" y="35.0"/>
</graphics>
</name>
<initialMarking>
<value>1</value>
<graphics>
<offset x="0.0" y="0.0"/>
</graphics>
</initialMarking>
<capacity>
<value>0</value>
</capacity>
<invariant>
<value>&lt;inf</value>
</invariant>
</place>
<transition id="T0">
<graphics>
<position x="420.0" y="105.0"/>
</graphics>
<name>
<value>T0</value>
<graphics>
<offset x="-5.0" y="35.0"/>
</graphics>
</name>
<orientation>
<value>0</value>
</orientation>
<rate>
<value>1.0</value>
</rate>
<timed>
<value>false</value>
</timed>
<infiniteServer>
<value>false</value>
</infiniteServer>
<priority>
<value>1</value>
</priority>
</transition>
<transition id="T1">
<graphics>
<position x="405.0" y="255.0"/>
</graphics>
<name>
<value>T1</value>
<graphics>
<offset x="-5.0" y="35.0"/>
</graphics>
</name>
<orientation>
<value>0</value>
</orientation>
<rate>
<value>1.0</value>
</rate>
<timed>
<value>false</value>
</timed>
<infiniteServer>
<value>false</value>
</infiniteServer>
<priority>
<value>1</value>
</priority>
</transition>
<transition id="T2">
<graphics>
<position x="405.0" y="495.0"/>
</graphics>
<name>
<value>T2</value>
<graphics>
<offset x="-5.0" y="35.0"/>
</graphics>
</name>
<orientation>
<value>0</value>
</orientation>
<rate>
<value>1.0</value>
</rate>
<timed>
<value>false</value>
</timed>
<infiniteServer>
<value>false</value>
</infiniteServer>
<priority>
<value>1</value>
</priority>
</transition>
<arc id="P0 to T0" source="P0" target="T0">
<graphics/>
<inscription>
<value>[0,inf)</value>
<graphics/>
</inscription>
<tagged>
<value>false</value>
</tagged>
<arcpath id="000" x="296" y="117" curvePoint="false"/>
<arcpath id="001" x="426" y="117" curvePoint="false"/>
<type value="timed"/>
</arc>
<arc id="P10 to T2" source="P10" target="T2">
<graphics/>
<inscription>
<value>[0,inf)</value>
<graphics/>
</inscription>
<tagged>
<value>false</value>
</tagged>
<arcpath id="000" x="311" y="534" curvePoint="false"/>
<arcpath id="001" x="411" y="515" curvePoint="false"/>
<type value="timed"/>
</arc>
<arc id="P3 to T1" source="P3" target="T1">
<graphics/>
<inscription>
<value>[0,inf)</value>
<graphics/>
</inscription>
<tagged>
<value>false</value>
</tagged>
<arcpath id="000" x="296" y="267" curvePoint="false"/>
<arcpath id="001" x="411" y="267" curvePoint="false"/>
<type value="timed"/>
</arc>
<arc id="P8 to T2" source="P8" target="T2">
<graphics/>
<inscription>
<value>[0,inf)</value>
<graphics/>
</inscription>
<tagged>
<value>false</value>
</tagged>
<arcpath id="000" x="310" y="453" curvePoint="false"/>
<arcpath id="001" x="412" y="501" curvePoint="false"/>
<type value="timed"/>
</arc>
<arc id="P9 to T2" source="P9" target="T2">
<graphics/>
<inscription>
<value>[0,inf)</value>
<graphics/>
</inscription>
<tagged>
<value>false</value>
</tagged>
<arcpath id="000" x="311" y="494" curvePoint="false"/>
<arcpath id="001" x="411" y="508" curvePoint="false"/>
<type value="timed"/>
</arc>
<arc id="T0 to P1" source="T0" target="P1">
<graphics/>
<inscription>
<value>1</value>
<graphics/>
</inscription>
<tagged>
<value>false</value>
</tagged>
<arcpath id="000" x="437" y="112" curvePoint="false"/>
<arcpath id="001" x="537" y="90" curvePoint="false"/>
<type value="normal"/>
</arc>
<arc id="T0 to P2" source="T0" target="P2">
<graphics/>
<inscription>
<value>1</value>
<graphics/>
</inscription>
<tagged>
<value>false</value>
</tagged>
<arcpath id="000" x="436" y="122" curvePoint="false"/>
<arcpath id="001" x="537" y="157" curvePoint="false"/>
<type value="normal"/>
</arc>
<arc id="T1 to P4" source="T1" target="P4">
<graphics/>
<inscription>
<value>1</value>
<graphics/>
</inscription>
<tagged>
<value>false</value>
</tagged>
<arcpath id="000" x="422" y="259" curvePoint="false"/>
<arcpath id="001" x="537" y="240" curvePoint="false"/>
<type value="normal"/>
</arc>
<arc id="T1 to P5" source="T1" target="P5">
<graphics/>
<inscription>
<value>1</value>
<graphics/>
</inscription>
<tagged>
<value>false</value>
</tagged>
<arcpath id="000" x="422" y="266" curvePoint="false"/>
<arcpath id="001" x="537" y="294" curvePoint="false"/>
<type value="normal"/>
</arc>
<arc id="T1 to P6" source="T1" target="P6">
<graphics/>
<inscription>
<value>1</value>
<graphics/>
</inscription>
<tagged>
<value>false</value>
</tagged>
<arcpath id="000" x="421" y="273" curvePoint="false"/>
<arcpath id="001" x="539" y="348" curvePoint="false"/>
<type value="normal"/>
</arc>
<arc id="T2 to P7" source="T2" target="P7">
<graphics/>
<inscription>
<value>1</value>
<graphics/>
</inscription>
<tagged>
<value>false</value>
</tagged>
<arcpath id="000" x="421" y="507" curvePoint="false"/>
<arcpath id="001" x="492" y="507" curvePoint="false"/>
<type value="normal"/>
</arc>
</net>
</pnml>
